@<TRIPOS>MOLECULE
ral.pdb
 61 65 0 0 0
SMALL
GASTEIGER

@<TRIPOS>ATOM
      1  O11       53.8020   33.5760   39.6270 O.3   241  RAL241     -0.5068
      2  H7        54.6870   33.9430   39.4540 H     241  RAL241      0.2921
      3  C11       52.9540   34.5140   39.1550 C.ar  241  RAL241      0.1169
      4  C12       53.3740   35.7720   38.8060 C.ar  241  RAL241     -0.0196
      5  C13       52.4070   36.7160   38.3490 C.ar  241  RAL241     -0.0501
      6  H9        52.7360   37.7360   38.1700 H     241  RAL241      0.0625
      7  H8        54.3770   36.1740   38.9260 H     241  RAL241      0.0654
      8  C10       51.6250   34.1370   38.9480 C.ar  241  RAL241     -0.0196
      9  H6        51.2390   33.1520   39.1980 H     241  RAL241      0.0654
     10  C9        50.6860   35.0420   38.3470 C.ar  241  RAL241     -0.0501
     11  H5        49.6830   34.7160   38.0850 H     241  RAL241      0.0625
     12  C8        51.1050   36.3710   38.1440 C.ar  241  RAL241     -0.0104
     13  C7        50.1160   37.2980   37.5860 C.ar  241  RAL241      0.0313
     14  S6        48.5520   37.3170   38.3000 S.2   241  RAL241     -0.0874
     15  C5        48.0970   38.5710   37.1600 C.ar  241  RAL241      0.0241
     16  C4        46.8450   39.1200   36.9740 C.ar  241  RAL241     -0.0058
     17  H4        46.0550   38.9380   37.6980 H     241  RAL241      0.0665
     18  C3        46.6530   40.0510   36.0030 C.ar  241  RAL241      0.1180
     19  O3        45.4090   40.6350   35.8260 O.3   241  RAL241     -0.5067
     20  H3        45.2660   41.0920   34.9780 H     241  RAL241      0.2921
     21  C2        47.6370   40.3500   35.0170 C.ar  241  RAL241     -0.0195
     22  H2        47.4080   40.9840   34.1640 H     241  RAL241      0.0654
     23  C1        48.9420   39.8510   35.1550 C.ar  241  RAL241     -0.0494
     24  H1        49.7760   40.0220   34.4800 H     241  RAL241      0.0625
     25  C14       49.1090   38.9390   36.2780 C.ar  241  RAL241      0.0008
     26  C15       50.3170   38.2480   36.5920 C.ar  241  RAL241      0.0447
     27  C16       51.5830   38.5380   35.8660 C.2   241  RAL241      0.1948
     28  O16       52.1740   37.7490   35.1460 O.2   241  RAL241     -0.2866
     29  C17       52.0840   39.9230   36.0480 C.ar  241  RAL241      0.0225
     30  C22       51.4590   40.8370   36.8930 C.ar  241  RAL241     -0.0475
     31  C21       52.0330   42.0690   37.1770 C.ar  241  RAL241     -0.0193
     32  H12       51.5720   42.7630   37.8760 H     241  RAL241      0.0654
     33  H13       50.5980   40.5460   37.4880 H     241  RAL241      0.0626
     34  C18       53.2170   40.3120   35.3720 C.ar  241  RAL241     -0.0475
     35  H10       53.7290   39.5600   34.7770 H     241  RAL241      0.0626
     36  C19       53.7870   41.5410   35.5780 C.ar  241  RAL241     -0.0193
     37  H11       54.5970   41.8950   34.9460 H     241  RAL241      0.0654
     38  C20       53.1860   42.4690   36.4440 C.ar  241  RAL241      0.1206
     39  O23       53.8430   43.6600   36.7310 O.3   241  RAL241     -0.4907
     40  C24       54.5660   44.3940   35.7720 C.3   241  RAL241      0.1022
     41  H14       55.5560   43.9410   35.6790 H     241  RAL241      0.0709
     42  H15       54.0040   44.4710   34.8380 H     241  RAL241      0.0709
     43  C25       54.8110   45.7810   36.1780 C.3   241  RAL241      0.0331
     44  H16       53.8350   46.2730   36.1400 H     241  RAL241      0.0460
     45  H17       54.9480   45.7740   37.2620 H     241  RAL241      0.0460
     46  N26       55.8230   46.5240   35.4030 N.3   241  RAL241     -0.2991
     47  C27       55.4240   46.9750   34.0720 C.3   241  RAL241     -0.0010
     48  H18       55.1200   46.2150   33.3480 H     241  RAL241      0.0427
     49  H19       54.5220   47.5540   34.2850 H     241  RAL241      0.0427
     50  C28       56.4500   47.8610   33.3450 C.3   241  RAL241     -0.0402
     51  H20       55.9540   48.1550   32.4180 H     241  RAL241      0.0278
     52  H21       56.6550   48.7430   33.9560 H     241  RAL241      0.0278
     53  C29       57.7740   47.1100   33.1830 C.3   241  RAL241     -0.0507
     54  H22       57.7590   46.2210   32.5490 H     241  RAL241      0.0266
     55  H23       58.4960   47.7740   32.7010 H     241  RAL241      0.0266
     56  C30       58.1970   46.6440   34.5860 C.3   241  RAL241     -0.0402
     57  H24       59.0840   46.0130   34.4970 H     241  RAL241      0.0278
     58  H25       58.4520   47.5370   35.1600 H     241  RAL241      0.0278
     59  C31       57.1590   45.9830   35.5050 C.3   241  RAL241     -0.0010
     60  H26       57.5420   46.0590   36.5260 H     241  RAL241      0.0427
     61  H27       57.1300   44.9370   35.1880 H     241  RAL241      0.0427
@<TRIPOS>BOND
     1    51    50    1
     2    54    53    1
     3    55    53    1
     4    53    50    1
     5    53    56    1
     6    50    52    1
     7    50    47    1
     8    48    47    1
     9    47    49    1
    10    47    46    1
    11    22    21    1
    12    24    23    1
    13    57    56    1
    14    56    58    1
    15    56    59    1
    16    35    34    1
    17    42    40    1
    18    37    36    1
    19    20    19    1
    20    21    23   ar
    21    21    18   ar
    22    28    27    2
    23    23    25   ar
    24    61    59    1
    25    34    36   ar
    26    34    29   ar
    27    46    59    1
    28    46    43    1
    29    59    60    1
    30    36    38   ar
    31    41    40    1
    32    40    43    1
    33    40    39    1
    34    19    18    1
    35    27    29    1
    36    27    26    1
    37    18    16   ar
    38    29    30   ar
    39    44    43    1
    40    43    45    1
    41    25    26   ar
    42    25    15   ar
    43    38    39    1
    44    38    31   ar
    45    26    13   ar
    46    30    31   ar
    47    30    33    1
    48    16    15   ar
    49    16    17    1
    50    15    14   ar
    51    31    32    1
    52    13    12    1
    53    13    14   ar
    54    11    10    1
    55    12    10   ar
    56    12     5   ar
    57     6     5    1
    58    10     8   ar
    59     5     4   ar
    60     4     7    1
    61     4     3   ar
    62     8     3   ar
    63     8     9    1
    64     3     1    1
    65     2     1    1
